Version 4
SHEET 1 880 680
WIRE 288 176 256 176
WIRE 256 208 256 176
WIRE 480 208 480 144
WIRE -64 240 -64 224
WIRE -64 240 -112 240
WIRE 528 240 512 240
WIRE -112 272 -112 240
WIRE -64 272 -64 240
WIRE 528 272 528 240
WIRE 288 304 240 304
WIRE 240 352 240 304
WIRE 240 448 240 432
FLAG 528 352 0
FLAG -112 272 0
FLAG 480 64 0
FLAG 384 176 v+
FLAG -64 144 v+
FLAG 384 304 v-
FLAG -64 352 v-
FLAG 240 448 0
FLAG 256 208 0
SYMBOL voltage -64 128 R0
SYMATTR InstName V1
SYMATTR Value 12
SYMBOL voltage -64 256 R0
SYMATTR InstName V2
SYMATTR Value 12
SYMBOL deanm1278_LM13700-spice-model/LM13700 352 160 R0
SYMATTR InstName U1
SYMBOL res 512 256 R0
SYMATTR InstName R1
SYMATTR Value 5k
SYMBOL current 480 64 R0
SYMATTR InstName IABC
SYMATTR Value 1m
SYMBOL voltage 240 336 R0
SYMATTR InstName VDIFF
SYMATTR Value 5
TEXT 72 40 Left 2 !# .dc VDIFF -75m 75m 1m\n# .dc VDIFF -5 5 50m\n.dc IABC 1u 2m .5m
