Version 4
SHEET 1 880 784
WIRE 240 -48 240 -96
WIRE 240 64 240 32
WIRE 176 112 64 112
WIRE 64 144 64 112
WIRE 240 192 240 160
WIRE -160 224 -160 208
WIRE -160 224 -224 224
WIRE -160 240 -160 224
WIRE -224 256 -224 224
WIRE 64 256 64 224
WIRE 240 288 240 256
WIRE 448 288 240 288
WIRE 448 320 448 288
WIRE 240 352 240 288
WIRE 448 400 448 384
WIRE 240 448 240 416
WIRE 384 448 352 448
WIRE 352 496 352 448
WIRE 448 528 448 496
WIRE 288 544 128 544
WIRE 128 592 128 544
FLAG 240 -96 v+
FLAG -160 128 v+
FLAG -160 320 v-
FLAG 64 256 0
FLAG 240 448 0
FLAG -224 256 0
FLAG 448 528 0
FLAG 128 672 0
SYMBOL voltage -160 112 R0
SYMATTR InstName V1
SYMBOL voltage -160 224 R0
SYMATTR InstName V2
SYMBOL voltage 64 128 R0
SYMATTR InstName V3
SYMATTR Value PULSE(-12 12 1m 0 0 .2m 5m)
SYMBOL npn 176 64 R0
SYMATTR InstName Q1
SYMBOL res 224 -64 R0
SYMATTR InstName R1
SYMATTR Value 1K
SYMBOL cap 224 352 R0
SYMATTR InstName C1
SYMATTR Value 1µ
SYMBOL voltage 128 576 R0
SYMATTR InstName V4
SYMATTR Value PULSE(0 5 0 0 0 4m 5m)
SYMBOL npn 384 400 R0
SYMATTR InstName Q2
SYMBOL diode 432 320 R0
SYMATTR InstName D1
SYMBOL diode 224 192 R0
SYMATTR InstName D2
TEXT -88 -40 Left 2 !.tran 10m
