Version 4
SHEET 1 880 784
WIRE -512 112 -512 96
WIRE -512 112 -576 112
WIRE -512 128 -512 112
WIRE 400 128 160 128
WIRE -576 144 -576 112
WIRE 160 192 160 128
WIRE 192 192 160 192
WIRE 400 240 400 128
WIRE 400 240 352 240
WIRE 464 240 400 240
WIRE 400 256 400 240
WIRE 464 256 464 240
WIRE 192 288 -144 288
WIRE -144 320 -144 288
WIRE 464 352 464 320
WIRE -144 432 -144 400
WIRE -48 480 -48 432
FLAG -512 16 v+
FLAG -512 208 v-
FLAG -144 432 0
FLAG 464 352 0
FLAG -576 144 0
FLAG -48 560 0
FLAG 272 176 v+
FLAG 272 304 v-
SYMBOL voltage -512 0 R0
SYMATTR InstName V1
SYMATTR Value 12
SYMBOL voltage -512 112 R0
SYMATTR InstName V2
SYMATTR Value 12
SYMBOL voltage -144 304 R0
SYMATTR InstName V3
SYMATTR Value PULSE(-12 12 1m 0 0 .2m 5m)
SYMBOL cap 448 256 R0
SYMATTR InstName C1
SYMATTR Value 1µ
SYMBOL voltage -48 464 R0
SYMATTR InstName V4
SYMATTR Value PULSE(0 5 0 0 0 4m 5m)
SYMBOL tl072/tl07x 256 240 R0
SYMATTR InstName U1
TEXT -88 -40 Left 2 !.tran 10m
