Version 4
SHEET 1 1080 840
WIRE 1024 112 576 112
WIRE 1040 112 1024 112
WIRE 752 160 432 160
WIRE 832 160 752 160
WIRE 1040 160 1040 112
WIRE 432 256 432 160
WIRE 576 256 576 112
WIRE -208 272 -208 240
WIRE -208 272 -240 272
WIRE -208 288 -208 272
WIRE 0 304 0 288
WIRE 352 304 272 304
WIRE 368 304 352 304
WIRE 352 384 352 304
WIRE 976 384 976 208
WIRE 976 384 352 384
WIRE 512 416 512 304
WIRE 512 416 272 416
WIRE 768 416 768 208
WIRE 768 416 512 416
WIRE 432 480 432 352
WIRE 480 480 432 480
WIRE 576 480 576 352
WIRE 576 480 480 480
WIRE 832 480 832 256
WIRE 896 480 832 480
WIRE 1040 480 1040 256
WIRE 1040 480 896 480
WIRE 896 512 896 480
WIRE 480 528 480 480
WIRE -352 576 -384 576
WIRE 416 576 272 576
WIRE -16 608 -16 592
WIRE 832 656 832 560
WIRE 832 656 272 656
WIRE 480 672 480 624
WIRE 896 672 896 608
WIRE 896 672 480 672
WIRE 480 704 480 672
FLAG 0 384 0
FLAG -240 272 0
FLAG -208 160 v+
FLAG -272 464 v+
FLAG -208 368 v-
FLAG -272 592 v-
FLAG 480 784 v-
FLAG 896 784 v-
FLAG 432 16 v+
FLAG 576 16 v+
FLAG 752 160 vo+
FLAG 1024 112 vo-
FLAG 0 288 v1
FLAG -16 688 0
FLAG -16 592 v2
FLAG 272 656 0
FLAG 272 416 0
FLAG 272 304 v2
FLAG 272 576 v1
SYMBOL tl072/tl07x -288 528 R0
SYMATTR InstName U1
SYMBOL voltage -208 144 R0
SYMATTR InstName V1
SYMATTR Value 12
SYMBOL voltage -208 272 R0
SYMATTR InstName V2
SYMATTR Value 12
SYMBOL voltage 0 288 R0
SYMATTR InstName V3
SYMATTR Value PULSE(-.1 .1 0 10m 10m 0 20m)
SYMBOL npn 368 256 R0
SYMATTR InstName Q1
SYMBOL npn 512 256 R0
SYMATTR InstName Q2
SYMBOL npn 768 160 R0
SYMATTR InstName Q3
SYMBOL npn 976 160 R0
SYMATTR InstName Q4
SYMBOL npn 416 528 R0
SYMATTR InstName Q5
SYMBOL npn 832 512 R0
SYMATTR InstName Q6
SYMBOL res 464 688 R0
SYMATTR InstName R1
SYMATTR Value 3k
SYMBOL res 880 688 R0
SYMATTR InstName R2
SYMATTR Value 6k
SYMBOL res 416 0 R0
SYMATTR InstName R3
SYMATTR Value 6k
SYMBOL res 560 0 R0
SYMATTR InstName R4
SYMATTR Value 6k
SYMBOL voltage -16 592 R0
SYMATTR InstName V4
SYMATTR Value PULSE(-.1 .1 0 0 0 5m 10m)
TEXT 48 104 Left 2 !.tran 100m
