Version 4
SHEET 1 1736 740
WIRE 496 -96 432 -96
WIRE 704 -48 656 -48
WIRE 496 0 480 0
WIRE 480 48 480 0
WIRE 640 48 480 48
WIRE 704 48 704 32
WIRE 704 48 640 48
WIRE 704 64 704 48
WIRE 1264 208 1056 208
WIRE 1472 208 1424 208
WIRE -144 272 -144 256
WIRE -144 272 -192 272
WIRE -144 288 -144 272
WIRE 928 288 672 288
WIRE 1008 288 1008 256
WIRE 1056 288 1056 208
WIRE 1056 288 1008 288
WIRE 1072 288 1056 288
WIRE -192 304 -192 272
WIRE 1264 304 1264 288
WIRE 1472 304 1264 304
WIRE 1264 336 1264 304
WIRE 1264 336 1232 336
WIRE -144 384 -144 368
WIRE 448 384 416 384
WIRE 672 384 672 288
WIRE 720 384 672 384
WIRE 1072 384 880 384
WIRE 416 432 416 384
WIRE 448 432 416 432
WIRE 640 432 640 48
WIRE 720 432 640 432
WIRE 928 432 928 288
WIRE 928 432 896 432
WIRE 416 464 416 432
WIRE 272 496 48 496
WIRE 272 512 272 496
WIRE 528 512 528 480
WIRE 800 512 800 480
WIRE 0 592 0 560
WIRE 48 592 48 496
WIRE 48 592 0 592
WIRE 80 592 48 592
WIRE 272 640 272 592
WIRE 272 640 240 640
WIRE 80 688 64 688
FLAG 48 384 0
FLAG 48 240 0
FLAG -192 304 0
FLAG -144 176 v+
FLAG -144 384 v-
FLAG 48 304 vsin
FLAG 48 160 vsq
FLAG 576 -112 v+
FLAG 576 16 v-
FLAG 432 -96 vsq
FLAG 704 144 0
FLAG 416 464 0
FLAG 528 512 0
FLAG 800 512 0
FLAG 160 576 v+
FLAG 160 704 v-
FLAG 64 688 0
FLAG 0 480 vsin
FLAG 272 640 ~vsin
FLAG 1504 416 v-
FLAG 1568 112 v+
FLAG 1632 416 0
FLAG 1424 208 vout
FLAG 1664 176 vsin
FLAG 1664 240 ~vsin
FLAG 1664 304 0
FLAG 976 560 0
FLAG 1152 272 v+
FLAG 1152 400 v-
FLAG 1008 176 0
SYMBOL voltage -144 160 R0
SYMATTR InstName V1
SYMATTR Value 12
SYMBOL voltage -144 272 R0
SYMATTR InstName V2
SYMATTR Value 12
SYMBOL voltage 48 144 R0
SYMATTR InstName V3
SYMATTR Value PULSE(-5 5 0.74m 0 0 0.5m 1m)
SYMBOL voltage 48 288 R0
SYMATTR InstName V4
SYMATTR Value SINE(0 5 1k)
SYMBOL tl072/tl07x 560 -48 R0
SYMATTR InstName U1
SYMBOL res 688 -64 R0
SYMATTR InstName R1
SYMATTR Value 68K
SYMBOL res 688 48 R0
SYMATTR InstName R2
SYMATTR Value 47K
SYMBOL Digital/dflop 528 336 R0
SYMATTR InstName A1
SYMBOL Digital/dflop 800 336 R0
SYMATTR InstName A2
SYMBOL tl072/tl07x 144 640 R0
SYMATTR InstName U2
SYMBOL res -16 464 R0
SYMATTR InstName R5
SYMATTR Value 100k
SYMBOL res 256 496 R0
SYMATTR InstName R6
SYMATTR Value 100k
SYMBOL Switches/ADG1633 1568 256 R0
SYMATTR InstName U3
SYMBOL voltage 976 464 R0
SYMATTR InstName V5
SYMATTR Value PULSE(5 0 .5m 0 0 1m 2m)
SYMBOL tl072/tl07x 1136 336 R0
SYMATTR InstName U4
SYMBOL res 1248 192 R0
SYMATTR InstName R3
SYMATTR Value 40k
SYMBOL res 992 160 R0
SYMATTR InstName R4
SYMATTR Value 10k
TEXT -200 496 Left 2 !.tran 10m
