Version 4
SHEET 1 2096 1288
WIRE 192 16 176 16
WIRE 1600 48 1376 48
WIRE -176 80 -176 32
WIRE 656 80 448 80
WIRE -32 112 -32 80
WIRE 80 112 -32 112
WIRE 176 112 176 16
WIRE 656 112 656 80
WIRE 1264 112 656 112
WIRE -32 128 -32 112
WIRE 1600 128 1600 48
WIRE 272 144 256 144
WIRE 448 144 448 80
WIRE 480 144 448 144
WIRE 336 176 304 176
WIRE 352 176 336 176
WIRE -176 192 -176 160
WIRE -176 192 -224 192
WIRE 656 192 656 112
WIRE 656 192 640 192
WIRE 1296 192 1264 192
WIRE 1376 192 1376 48
WIRE 1376 192 1296 192
WIRE 1392 192 1376 192
WIRE -224 208 -224 192
WIRE -176 208 -176 192
WIRE 336 208 336 176
WIRE 1936 208 1712 208
WIRE 352 224 352 176
WIRE 384 224 352 224
WIRE 48 240 -32 240
WIRE 80 240 48 240
WIRE 384 240 384 224
WIRE 480 240 384 240
WIRE 1600 240 1600 208
WIRE 1600 240 1552 240
WIRE -32 272 -32 240
WIRE 48 272 48 240
WIRE 336 288 336 272
WIRE 1392 288 1360 288
WIRE 1936 288 1936 208
WIRE 176 304 176 240
WIRE 1600 304 1600 240
WIRE 1600 304 1520 304
WIRE 1360 320 1360 288
WIRE -176 336 -176 288
WIRE 1712 352 1712 208
WIRE 1728 352 1712 352
WIRE 896 384 848 384
WIRE 1152 384 1120 384
WIRE 1712 384 1712 352
WIRE 1712 384 1600 384
WIRE 1936 400 1936 368
WIRE 1936 400 1888 400
WIRE 656 448 656 192
WIRE 768 448 656 448
WIRE 896 448 768 448
WIRE 1520 448 1520 384
WIRE 1520 448 1120 448
WIRE 1728 448 1520 448
WIRE -32 512 -32 352
WIRE 896 512 -32 512
WIRE 1248 512 1120 512
WIRE 896 576 832 576
WIRE 1168 576 1120 576
WIRE 688 592 688 576
WIRE 832 608 832 576
WIRE 1168 608 1168 576
WIRE -208 672 -304 672
WIRE 176 704 -80 704
WIRE -304 720 -304 672
WIRE -208 720 -208 672
WIRE 256 720 256 144
WIRE 624 720 256 720
WIRE 176 752 176 704
WIRE 416 768 240 768
WIRE 768 768 768 448
WIRE 1248 768 1248 512
WIRE 1248 768 768 768
WIRE -304 832 -304 800
WIRE -208 832 -208 800
WIRE -80 832 -80 704
WIRE -80 832 -208 832
WIRE -32 832 -80 832
WIRE 416 832 416 768
WIRE 624 832 624 720
WIRE -208 864 -208 832
WIRE 176 880 176 832
WIRE 176 880 128 880
WIRE 352 880 176 880
WIRE 560 880 528 880
WIRE 528 912 528 880
WIRE -32 928 -64 928
WIRE -64 944 -64 928
WIRE 416 976 416 928
WIRE 624 976 624 928
WIRE 624 976 416 976
WIRE 624 992 624 976
WIRE 240 1072 240 768
WIRE 240 1072 176 1072
WIRE 272 1072 240 1072
WIRE 624 1120 624 1072
WIRE 624 1120 432 1120
WIRE 176 1152 176 1072
WIRE 272 1168 240 1168
WIRE 240 1184 240 1168
FLAG -224 208 0
FLAG 336 288 0
FLAG 176 304 V-
FLAG -176 336 V-
FLAG -176 32 V+
FLAG 192 16 V+
FLAG 240 1184 0
FLAG -64 944 0
FLAG -304 832 0
FLAG 528 912 0
FLAG 48 816 v+
FLAG 352 1056 v+
FLAG 352 1184 v-
FLAG 48 944 v-
FLAG -304 672 VCV
FLAG 176 1232 v-
FLAG 656 80 tri
FLAG -32 208 0
FLAG -208 944 v-
FLAG -32 0 v+
FLAG 560 128 v+
FLAG 560 256 v-
FLAG 848 384 0
FLAG 1152 384 v+
FLAG 48 352 0
FLAG 832 688 v+
FLAG 1168 672 0
FLAG 688 672 0
FLAG 1472 176 v+
FLAG 1472 304 v-
FLAG 1296 272 v-
FLAG 1360 320 0
FLAG 1808 336 v+
FLAG 1808 464 v-
SYMBOL deanm1278_LM13700-spice-model/LM13700 144 96 R0
SYMATTR InstName U1
SYMBOL voltage -176 64 R0
SYMATTR InstName V1
SYMATTR Value 12
SYMBOL voltage -176 192 R0
SYMATTR InstName V2
SYMATTR Value 12
SYMBOL cap 320 208 R0
SYMATTR InstName C1
SYMATTR Value 4.7n
SYMBOL pnp 352 832 R0
SYMATTR InstName Q1
SYMBOL pnp 560 832 R0
SYMATTR InstName Q2
SYMBOL tl072/tl07x 336 1120 R0
SYMATTR InstName U3
SYMBOL tl072/tl07x 32 880 R0
SYMATTR InstName U4
SYMBOL res 608 976 R0
SYMATTR InstName R1
SYMATTR Value 4.7K
SYMBOL res 160 736 R0
SYMATTR InstName R2
SYMATTR Value 1k8
SYMBOL res -224 704 R0
SYMATTR InstName R6
SYMATTR Value 100K
SYMBOL voltage -304 704 R0
SYMATTR InstName V4
SYMATTR Value 0
SYMBOL res 160 1136 R0
SYMATTR InstName R3
SYMATTR Value 326K
SYMBOL res -224 848 R0
SYMATTR InstName R11
SYMATTR Value 240K
SYMBOL res -48 -16 R0
SYMATTR InstName R4
SYMATTR Value 39k
SYMBOL res -48 112 R0
SYMATTR InstName R5
SYMATTR Value 10k
SYMBOL tl072/tl07x 544 192 R0
SYMATTR InstName U2
SYMBOL Misc/NE555 1008 480 R0
SYMATTR InstName U5
SYMBOL res -48 256 R0
SYMATTR InstName R7
SYMATTR Value 47k
SYMBOL res 32 256 R0
SYMATTR InstName R8
SYMATTR Value 33k
SYMBOL res 816 592 R0
SYMATTR InstName R9
SYMATTR Value 4.7k
SYMBOL cap 1152 608 R0
SYMATTR InstName C2
SYMATTR Value .001µ
SYMBOL voltage 688 576 R0
SYMATTR InstName V3
SYMATTR Value PULSE(5 0 43u 0 0 0 98u)
SYMBOL tl072/tl07x 1456 240 R0
SYMATTR InstName U6
SYMBOL res 1248 96 R0
SYMATTR InstName R12
SYMATTR Value 100k
SYMBOL res 1584 112 R0
SYMATTR InstName R13
SYMATTR Value 100k
SYMBOL res 1280 176 R0
SYMATTR InstName R15
SYMATTR Value 150k
SYMBOL tl072/tl07x 1792 400 R0
SYMATTR InstName U7
SYMBOL res 1920 272 R0
SYMATTR InstName R14
SYMATTR Value 10k
SYMBOL res 1584 288 R0
SYMATTR InstName R10
SYMATTR Value 10k
SYMBOL res 1504 288 R0
SYMATTR InstName R16
SYMATTR Value 10k
TEXT 712 -464 Left 2 !.lib lm13700.sub\n.lib opamp.sub\n## CV-freq analysis ##\n#.step param CV 0 10 1\n# .tran 0 220m UIC\n# .tran 0 8 UIC\n# .meas tp TRIG V(tri)=0 RISE=2 TARG V(tri)=0 RISE=3\n# .meas sp TRIG V(sq)=0 RISE=2 TARG V(sq)=0 RISE=3\n# .meas iabc param -1*Ic(q2)\n# .meas TRAN iout param abs(I(C1)) WHEN V(tri)=0 RISE=2\n## R6 Analysis CV=5 ##\n#.step param RA 98k 102K 100\n#.meas tp TRIG V(tri)=0 RISE=2 TARG V(tri)=0 RISE=3\n#.param CV 5\n#.tran 0 500m UIC\n## R3 Analysis CV=0 ##\n#.step param RREF 320K 330K 100\n#.meas tp TRIG V(tri)=0 RISE=2 TARG V(tri)=0 RISE=3\n.tran 500u UIC\n## High-freq accuracy CV=-5 ##\n# .tran 200u UIC\n## DC CV analysis ##\n# .dc V4 0 10 1
